Circuit: * D:\GITHUB\dummy-load\LT spice simulations\Draft1.asc

Direct Newton iteration for .op point succeeded.

Date: Sun Nov 08 03:54:00 2020
Total elapsed time: 0.055 seconds.

tnom = 27
temp = 27
method = modified trap
totiter = 2091
traniter = 2088
tranpoints = 1045
accept = 1045
rejected = 0
matrix size = 8
fillins = 2
solver = Normal
Matrix Compiler1: 478 bytes object code size  0.2/0.1/[0.1]
Matrix Compiler2: 642 bytes object code size  0.1/0.1/[0.1]

