Circuit: * D:\GITHUB\dummy-load\LT spice simulations\FINISHED REVERSE VOLTAGE PROTECTION WITH RELAY.asc

Direct Newton iteration for .op point succeeded.

Date: Wed Oct 28 21:52:50 2020
Total elapsed time: 0.377 seconds.

tnom = 27
temp = 27
method = modified trap
totiter = 6340
traniter = 6314
tranpoints = 2641
accept = 2119
rejected = 522
matrix size = 102
fillins = 107
solver = Normal
Thread vector: 8.5/5.0[2] 2.9/2.4[2] 1.4/1.2[2] 0.5/1.2[1]  2592/500
Matrix Compiler1: 9.51 KB object code size  2.4/1.1/[0.9]
Matrix Compiler2: 9.86 KB object code size  0.9/1.3/[0.7]

