Circuit: * D:\GITHUB\Electronic-Load\Simulation\Simulation.asc

Direct Newton iteration failed to find .op point.  (Use ".option noopiter" to skip.)
Starting Gmin stepping
Gmin = 10
Gmin = 1.07374
Gmin = 0.115292
Gmin = 0.0123794
Gmin = 0.00132923
Gmin = 0.000142725
Gmin = 1.5325e-005
Gmin = 1.6455e-006
Gmin = 1.76685e-007
Gmin = 1.89714e-008
Gmin = 2.03704e-009
Gmin = 2.18725e-010
Gmin = 2.34854e-011
Gmin = 2.52173e-012
Gmin = 2.70769e-013
Gmin = 0
Gmin stepping succeeded in finding the operating point.


Date: Fri Dec 24 02:26:45 2021
Total elapsed time: 0.534 seconds.

tnom = 27
temp = 27
method = modified trap
totiter = 2798
traniter = 2088
tranpoints = 1045
accept = 1045
rejected = 0
matrix size = 246
fillins = 400
solver = Normal
Thread vector: 15.8/8.5[4] 6.8/5.5[4] 7.2/3.9[4] 1.6/2.1[1]  2592/500
Matrix Compiler1: 34.30 KB object code size  10.3/4.9/[2.8]
Matrix Compiler2: 27.45 KB object code size  5.3/5.0/[1.8]

