Circuit: * D:\GITHUB\Electronic-Load\Simulation\Simulation.asc

Direct Newton iteration failed to find .op point.  (Use ".option noopiter" to skip.)
Starting Gmin stepping
Gmin = 10
Gmin = 1.07374
Gmin = 0.115292
Gmin = 0.0123794
Gmin = 0.00132923
Gmin = 0.000142725
Gmin = 1.5325e-005
Gmin = 1.6455e-006
Gmin = 1.76685e-007
Gmin = 1.89714e-008
Gmin = 2.03704e-009
Gmin = 2.18725e-010
Gmin = 2.34854e-011
Gmin = 2.52173e-012
Gmin = 2.70769e-013
Gmin = 0
Gmin stepping succeeded in finding the operating point.


Date: Sat Dec 25 20:53:33 2021
Total elapsed time: 0.511 seconds.

tnom = 27
temp = 27
method = modified trap
totiter = 5519
traniter = 4839
tranpoints = 2029
accept = 1703
rejected = 326
matrix size = 244
fillins = 426
solver = Normal
Thread vector: 16.7/10.6[4] 7.0/3.9[4] 4.7/3.7[4] 1.6/3.1[1]  2592/500
Matrix Compiler1: 36.14 KB object code size  10.6/5.1/[2.9]
Matrix Compiler2: 27.75 KB object code size  5.2/5.0/[1.7]

