Circuit: * D:\GITHUB\Electronic-Load\Simulation\Simulation.asc

Direct Newton iteration failed to find .op point.  (Use ".option noopiter" to skip.)
Starting Gmin stepping
Gmin = 10
Gmin = 1.07374
Gmin = 0.115292
Gmin = 0.0123794
Gmin = 0.00132923
Gmin = 0.000142725
Gmin = 1.5325e-005
Gmin = 1.6455e-006
Gmin = 1.76685e-007
Gmin = 1.89714e-008
Gmin = 2.03704e-009
Gmin = 2.18725e-010
Gmin = 2.34854e-011
Gmin = 2.52173e-012
Gmin = 2.70769e-013
Gmin = 0
Gmin stepping succeeded in finding the operating point.


Date: Sat Dec 25 19:33:58 2021
Total elapsed time: 0.570 seconds.

tnom = 27
temp = 27
method = modified trap
totiter = 2789
traniter = 2106
tranpoints = 1054
accept = 1053
rejected = 1
matrix size = 243
fillins = 437
solver = Normal
Thread vector: 16.9/10.6[4] 7.1/4.1[4] 5.0/3.9[4] 2.0/2.2[1]  2592/500
Matrix Compiler1: 38.39 KB object code size  11.3/5.6/[3.7]
Matrix Compiler2: 27.87 KB object code size  5.0/5.1/[2.5]

