Circuit: * D:\GITHUB\Electronic-Load\Simulation\Simulation.asc

Direct Newton iteration failed to find .op point.  (Use ".option noopiter" to skip.)
Starting Gmin stepping
Gmin = 10
Gmin = 1.07374
Gmin = 0.115292
Gmin = 0.0123794
Gmin = 0.00132923
Gmin = 0.000142725
Gmin = 1.5325e-005
Gmin = 1.6455e-006
Gmin = 1.76685e-007
Gmin = 1.89714e-008
Gmin = 2.03704e-009
Gmin = 2.18725e-010
Gmin = 2.34854e-011
Gmin = 2.52173e-012
Gmin = 2.70769e-013
Gmin = 0
Gmin stepping succeeded in finding the operating point.


Date: Fri Dec 24 02:43:36 2021
Total elapsed time: 0.531 seconds.

tnom = 27
temp = 27
method = modified trap
totiter = 2784
traniter = 2098
tranpoints = 1050
accept = 1048
rejected = 2
matrix size = 248
fillins = 393
solver = Normal
Thread vector: 17.5/9.1[4] 6.5/3.8[4] 8.0/4.0[4] 1.7/2.2[1]  2592/500
Matrix Compiler1: 34.16 KB object code size  11.0/5.3/[3.3]
Matrix Compiler2: 27.48 KB object code size  7.0/5.5/[2.0]

